%chk=dummy.chk
# hf/3-21g geom=connectivity

Dummy

1 1
N                                        0.540433             -3.718950            0.794101            
C                                        -0.078297            2.674390             0.242171            
H                                        -0.320985            -4.093551            0.375394            
H                                        0.699056             -4.184928            1.696453            
H                                        1.324158             -3.938218            0.164578            
C                                        0.423266             -2.231086            0.953203            
H                                        -0.427689            -2.016634            1.601316            
H                                        1.329450             -1.861441            1.434639            
C                                        0.236798             -1.555614            -0.399856           
H                                        -0.669747            -1.923529            -0.883125           
H                                        1.091462             -1.767302            -1.045228           
C                                        1.268040             0.717477             -0.088937           
C                                        1.167416             2.080957             0.124701            
C                                        0.123149             -0.060836            -0.190604           
C                                        -1.122719            0.538014             -0.068562           
C                                        -1.222948            1.901924             0.144094            
H                                        2.242691             0.262072             -0.191699           
H                                        2.061762             2.679951             0.195699            
H                                        -2.019461            -0.058564            -0.153845           
H                                        -0.156269            3.738116             0.404529            
H                                        -2.195564            2.360851             0.229476            
